.MODEL MMBT3904 NPN IS=4.639f NF=0.9995 ISE=2.091E-14 NE=1.6 BF=160.1 IKF=0.12 VAF=98.69 NR=1.001 ISC=3.257p NC=1.394 BR=5.944 IKR=0.06 VAR=19.29 RB=1 RE=0.3614 RC=1.755 XTB=0 EG=1.11 XTI=3 CJE=5.631p VJE=0.7002 MJE=0.3385 TF=3.001E-10 XTF=27 VTF=1.461 ITF=0.2723 CJC=4.949p VJC=0.5969 MJC=0.1928 XCJC=0.864 TR=9.4E-8 FC=0.5582 Vceo=40 Icrating=200m
